
Note: No compatibility mode selected!


Circuit: ** sch_path: /home/designer/shared/amaru/analog/tb/tb_amp_01.sch

Doing analysis at TEMP = 27.000000 and TNOM = 27.000000

Using SPARSE 1.3 as Direct Linear Solver

No. of Data Rows : 1
ASCII raw file "tb_opamp_01.raw"
ASCII raw file "/home/designer/shared/amaru/simulations/ngspice/tb_amp_01.raw"
Doing analysis at TEMP = 27.000000 and TNOM = 27.000000

Using SPARSE 1.3 as Direct Linear Solver
OP information in rawfile.

Total analysis time (seconds) = 0.00590163

Total elapsed time (seconds) = 0.102 

Total DRAM available = 7780.355 MB.
DRAM currently available = 4986.805 MB.
Maximum ngspice program size =  530.445 MB.
Current ngspice program size =   15.191 MB.

Shared ngspice pages =   10.734 MB.
Text (code) pages =    5.980 MB.
Stack = 0 bytes.
Library pages =   61.285 MB.

