
Note: No compatibility mode selected!


Circuit: ** sch_path: /home/designer/shared/amaru/analog/tb/tb_capb_gen.sch

Error: no such device or model name v16
Doing analysis at TEMP = 27.000000 and TNOM = 27.000000

Using SPARSE 1.3 as Direct Linear Solver
Doing analysis at TEMP = 27.000000 and TNOM = 27.000000

Using SPARSE 1.3 as Direct Linear Solver
Warning: singular matrix:  check node vip

Note: Starting dynamic gmin stepping
Warning: singular matrix:  check node vip

Warning: Dynamic gmin stepping failed
Note: Starting true gmin stepping
Warning: singular matrix:  check node vip

Warning: singular matrix:  check node vip

Warning: singular matrix:  check node vip

Warning: singular matrix:  check node vip

Warning: True gmin stepping failed
Note: Starting source stepping
Warning: source stepping failed
Note: Transient op started
Note: Transient op finished successfully

No. of Data Rows : 5000
f_res               =  4.656376e+08
ASCII raw file "tb_capb_g1.raw"
Error: no such device or model name v16
Doing analysis at TEMP = 27.000000 and TNOM = 27.000000

Using SPARSE 1.3 as Direct Linear Solver
Doing analysis at TEMP = 27.000000 and TNOM = 27.000000

Using SPARSE 1.3 as Direct Linear Solver

No. of Data Rows : 5000
f_res               =  4.594819e+08
ASCII raw file "tb_capb_g1.raw"
Error: no such device or model name v16
Doing analysis at TEMP = 27.000000 and TNOM = 27.000000

Using SPARSE 1.3 as Direct Linear Solver
Doing analysis at TEMP = 27.000000 and TNOM = 27.000000

Using SPARSE 1.3 as Direct Linear Solver

No. of Data Rows : 5000
f_res               =  4.535641e+08
ASCII raw file "tb_capb_g1.raw"
Error: no such device or model name v16
Doing analysis at TEMP = 27.000000 and TNOM = 27.000000

Using SPARSE 1.3 as Direct Linear Solver
Doing analysis at TEMP = 27.000000 and TNOM = 27.000000

Using SPARSE 1.3 as Direct Linear Solver

No. of Data Rows : 5000
f_res               =  4.478691e+08
ASCII raw file "tb_capb_g1.raw"
Error: no such device or model name v16
Doing analysis at TEMP = 27.000000 and TNOM = 27.000000

Using SPARSE 1.3 as Direct Linear Solver
Doing analysis at TEMP = 27.000000 and TNOM = 27.000000

Using SPARSE 1.3 as Direct Linear Solver

No. of Data Rows : 5000
f_res               =  4.423833e+08
ASCII raw file "tb_capb_g1.raw"
Error: no such device or model name v16
Doing analysis at TEMP = 27.000000 and TNOM = 27.000000

Using SPARSE 1.3 as Direct Linear Solver
Doing analysis at TEMP = 27.000000 and TNOM = 27.000000

Using SPARSE 1.3 as Direct Linear Solver

No. of Data Rows : 5000
f_res               =  4.370942e+08
ASCII raw file "tb_capb_g1.raw"
Error: no such device or model name v16
Doing analysis at TEMP = 27.000000 and TNOM = 27.000000

Using SPARSE 1.3 as Direct Linear Solver
Doing analysis at TEMP = 27.000000 and TNOM = 27.000000

Using SPARSE 1.3 as Direct Linear Solver

No. of Data Rows : 5000
f_res               =  4.319904e+08
ASCII raw file "tb_capb_g1.raw"
Error: no such device or model name v16
Doing analysis at TEMP = 27.000000 and TNOM = 27.000000

Using SPARSE 1.3 as Direct Linear Solver
Doing analysis at TEMP = 27.000000 and TNOM = 27.000000

Using SPARSE 1.3 as Direct Linear Solver

No. of Data Rows : 5000
f_res               =  4.270612e+08
ASCII raw file "tb_capb_g1.raw"
Error: no such device or model name v16
Doing analysis at TEMP = 27.000000 and TNOM = 27.000000

Using SPARSE 1.3 as Direct Linear Solver
Doing analysis at TEMP = 27.000000 and TNOM = 27.000000

Using SPARSE 1.3 as Direct Linear Solver

No. of Data Rows : 5000
f_res               =  4.222970e+08
ASCII raw file "tb_capb_g1.raw"
Error: no such device or model name v16
Doing analysis at TEMP = 27.000000 and TNOM = 27.000000

Using SPARSE 1.3 as Direct Linear Solver
Doing analysis at TEMP = 27.000000 and TNOM = 27.000000

Using SPARSE 1.3 as Direct Linear Solver

No. of Data Rows : 5000
f_res               =  4.176887e+08
ASCII raw file "tb_capb_g1.raw"
Error: no such device or model name v16
Doing analysis at TEMP = 27.000000 and TNOM = 27.000000

Using SPARSE 1.3 as Direct Linear Solver
Doing analysis at TEMP = 27.000000 and TNOM = 27.000000

Using SPARSE 1.3 as Direct Linear Solver

No. of Data Rows : 5000
f_res               =  4.132280e+08
ASCII raw file "tb_capb_g1.raw"
Error: no such device or model name v16
Doing analysis at TEMP = 27.000000 and TNOM = 27.000000

Using SPARSE 1.3 as Direct Linear Solver
Doing analysis at TEMP = 27.000000 and TNOM = 27.000000

Using SPARSE 1.3 as Direct Linear Solver

No. of Data Rows : 5000
f_res               =  4.089072e+08
ASCII raw file "tb_capb_g1.raw"
Error: no such device or model name v16
Doing analysis at TEMP = 27.000000 and TNOM = 27.000000

Using SPARSE 1.3 as Direct Linear Solver
Doing analysis at TEMP = 27.000000 and TNOM = 27.000000

Using SPARSE 1.3 as Direct Linear Solver

No. of Data Rows : 5000
f_res               =  4.047192e+08
ASCII raw file "tb_capb_g1.raw"
Error: no such device or model name v16
Doing analysis at TEMP = 27.000000 and TNOM = 27.000000

Using SPARSE 1.3 as Direct Linear Solver
Doing analysis at TEMP = 27.000000 and TNOM = 27.000000

Using SPARSE 1.3 as Direct Linear Solver

No. of Data Rows : 5000
f_res               =  4.006573e+08
ASCII raw file "tb_capb_g1.raw"
Error: no such device or model name v16
Doing analysis at TEMP = 27.000000 and TNOM = 27.000000

Using SPARSE 1.3 as Direct Linear Solver
Doing analysis at TEMP = 27.000000 and TNOM = 27.000000

Using SPARSE 1.3 as Direct Linear Solver

No. of Data Rows : 5000
f_res               =  3.967152e+08
ASCII raw file "tb_capb_g1.raw"
Error: no such device or model name v16
Doing analysis at TEMP = 27.000000 and TNOM = 27.000000

Using SPARSE 1.3 as Direct Linear Solver
Doing analysis at TEMP = 27.000000 and TNOM = 27.000000

Using SPARSE 1.3 as Direct Linear Solver

No. of Data Rows : 5000
f_res               =  3.928872e+08
ASCII raw file "tb_capb_g1.raw"
ASCII raw file "/home/designer/shared/amaru/simulations/ngspice/tb_capb_gen.raw"
Doing analysis at TEMP = 27.000000 and TNOM = 27.000000

Using SPARSE 1.3 as Direct Linear Solver

Total analysis time (seconds) = 29.9634

Total elapsed time (seconds) = 31.415 

Total DRAM available = 7780.359 MB.
DRAM currently available = 3442.258 MB.
Maximum ngspice program size = 2824.328 MB.
Current ngspice program size = 2309.465 MB.

Shared ngspice pages =   11.180 MB.
Text (code) pages =    5.980 MB.
Stack = 0 bytes.
Library pages = 2355.168 MB.

