
Note: No compatibility mode selected!


Circuit: ** sch_path: /home/designer/shared/amaru/analog/tb/tb_capb_gen_2.sch

Error: no such device or model name v16
Doing analysis at TEMP = 27.000000 and TNOM = 27.000000

Using SPARSE 1.3 as Direct Linear Solver
Doing analysis at TEMP = 27.000000 and TNOM = 27.000000

Using SPARSE 1.3 as Direct Linear Solver

No. of Data Rows : 5000
f_res               =  4.240602e+08
ASCII raw file "tb_capb_g2.raw"
Error: no such device or model name v16
Doing analysis at TEMP = 27.000000 and TNOM = 27.000000

Using SPARSE 1.3 as Direct Linear Solver
Doing analysis at TEMP = 27.000000 and TNOM = 27.000000

Using SPARSE 1.3 as Direct Linear Solver

No. of Data Rows : 5000
f_res               =  4.186581e+08
ASCII raw file "tb_capb_g2.raw"
Error: no such device or model name v16
Doing analysis at TEMP = 27.000000 and TNOM = 27.000000

Using SPARSE 1.3 as Direct Linear Solver
Doing analysis at TEMP = 27.000000 and TNOM = 27.000000

Using SPARSE 1.3 as Direct Linear Solver

No. of Data Rows : 5000
f_res               =  4.134572e+08
ASCII raw file "tb_capb_g2.raw"
Error: no such device or model name v16
Doing analysis at TEMP = 27.000000 and TNOM = 27.000000

Using SPARSE 1.3 as Direct Linear Solver
Doing analysis at TEMP = 27.000000 and TNOM = 27.000000

Using SPARSE 1.3 as Direct Linear Solver

No. of Data Rows : 5000
f_res               =  4.084455e+08
ASCII raw file "tb_capb_g2.raw"
Error: no such device or model name v16
Doing analysis at TEMP = 27.000000 and TNOM = 27.000000

Using SPARSE 1.3 as Direct Linear Solver
Doing analysis at TEMP = 27.000000 and TNOM = 27.000000

Using SPARSE 1.3 as Direct Linear Solver

No. of Data Rows : 5000
f_res               =  4.036116e+08
ASCII raw file "tb_capb_g2.raw"
Error: no such device or model name v16
Doing analysis at TEMP = 27.000000 and TNOM = 27.000000

Using SPARSE 1.3 as Direct Linear Solver
Doing analysis at TEMP = 27.000000 and TNOM = 27.000000

Using SPARSE 1.3 as Direct Linear Solver

No. of Data Rows : 5000
f_res               =  3.989454e+08
ASCII raw file "tb_capb_g2.raw"
Error: no such device or model name v16
Doing analysis at TEMP = 27.000000 and TNOM = 27.000000

Using SPARSE 1.3 as Direct Linear Solver
Doing analysis at TEMP = 27.000000 and TNOM = 27.000000

Using SPARSE 1.3 as Direct Linear Solver

No. of Data Rows : 5000
f_res               =  3.944373e+08
ASCII raw file "tb_capb_g2.raw"
Error: no such device or model name v16
Doing analysis at TEMP = 27.000000 and TNOM = 27.000000

Using SPARSE 1.3 as Direct Linear Solver
Doing analysis at TEMP = 27.000000 and TNOM = 27.000000

Using SPARSE 1.3 as Direct Linear Solver

No. of Data Rows : 5000
f_res               =  3.900786e+08
ASCII raw file "tb_capb_g2.raw"
Error: no such device or model name v16
Doing analysis at TEMP = 27.000000 and TNOM = 27.000000

Using SPARSE 1.3 as Direct Linear Solver
Doing analysis at TEMP = 27.000000 and TNOM = 27.000000

Using SPARSE 1.3 as Direct Linear Solver

No. of Data Rows : 5000
f_res               =  3.858613e+08
ASCII raw file "tb_capb_g2.raw"
Error: no such device or model name v16
Doing analysis at TEMP = 27.000000 and TNOM = 27.000000

Using SPARSE 1.3 as Direct Linear Solver
Doing analysis at TEMP = 27.000000 and TNOM = 27.000000

Using SPARSE 1.3 as Direct Linear Solver

No. of Data Rows : 5000
f_res               =  3.817779e+08
ASCII raw file "tb_capb_g2.raw"
Error: no such device or model name v16
Doing analysis at TEMP = 27.000000 and TNOM = 27.000000

Using SPARSE 1.3 as Direct Linear Solver
Doing analysis at TEMP = 27.000000 and TNOM = 27.000000

Using SPARSE 1.3 as Direct Linear Solver

No. of Data Rows : 5000
f_res               =  3.778214e+08
ASCII raw file "tb_capb_g2.raw"
Error: no such device or model name v16
Doing analysis at TEMP = 27.000000 and TNOM = 27.000000

Using SPARSE 1.3 as Direct Linear Solver
Doing analysis at TEMP = 27.000000 and TNOM = 27.000000

Using SPARSE 1.3 as Direct Linear Solver

No. of Data Rows : 5000
f_res               =  3.739853e+08
ASCII raw file "tb_capb_g2.raw"
Error: no such device or model name v16
Doing analysis at TEMP = 27.000000 and TNOM = 27.000000

Using SPARSE 1.3 as Direct Linear Solver
Doing analysis at TEMP = 27.000000 and TNOM = 27.000000

Using SPARSE 1.3 as Direct Linear Solver

No. of Data Rows : 5000
f_res               =  3.702638e+08
ASCII raw file "tb_capb_g2.raw"
Error: no such device or model name v16
Doing analysis at TEMP = 27.000000 and TNOM = 27.000000

Using SPARSE 1.3 as Direct Linear Solver
Doing analysis at TEMP = 27.000000 and TNOM = 27.000000

Using SPARSE 1.3 as Direct Linear Solver

No. of Data Rows : 5000
f_res               =  3.666512e+08
ASCII raw file "tb_capb_g2.raw"
Error: no such device or model name v16
Doing analysis at TEMP = 27.000000 and TNOM = 27.000000

Using SPARSE 1.3 as Direct Linear Solver
Doing analysis at TEMP = 27.000000 and TNOM = 27.000000

Using SPARSE 1.3 as Direct Linear Solver

No. of Data Rows : 5000
f_res               =  3.631423e+08
ASCII raw file "tb_capb_g2.raw"
Error: no such device or model name v16
Doing analysis at TEMP = 27.000000 and TNOM = 27.000000

Using SPARSE 1.3 as Direct Linear Solver
Doing analysis at TEMP = 27.000000 and TNOM = 27.000000

Using SPARSE 1.3 as Direct Linear Solver

No. of Data Rows : 5000
f_res               =  3.597323e+08
ASCII raw file "tb_capb_g2.raw"
ASCII raw file "/home/designer/shared/amaru/simulations/ngspice/tb_capb_gen_2.raw"
Doing analysis at TEMP = 27.000000 and TNOM = 27.000000

Using SPARSE 1.3 as Direct Linear Solver

Total analysis time (seconds) = 29.2109

Total elapsed time (seconds) = 30.661 

Total DRAM available = 7780.359 MB.
DRAM currently available = 3475.551 MB.
Maximum ngspice program size = 2824.328 MB.
Current ngspice program size = 2309.398 MB.

Shared ngspice pages =   11.113 MB.
Text (code) pages =    5.980 MB.
Stack = 0 bytes.
Library pages = 2355.168 MB.

