
Note: No compatibility mode selected!


Circuit: ** sch_path: /home/designer/shared/amaru/analog/tb/tb_inv_1x.sch

binary raw file "/home/designer/shared/amaru/simulations/ngspice/tb_inv_1x.raw"
Doing analysis at TEMP = 27.000000 and TNOM = 27.000000

Using SPARSE 1.3 as Direct Linear Solver
No. of Data Columns : 86  

Initial Transient Solution
--------------------------

Node                                   Voltage
----                                   -------
vdd                                        1.2
z                                          1.2
vss                                          0
a                                            0
v3#branch                          3.42303e-11
v2#branch                          5.95076e-11
v1#branch                         -5.95076e-11


No. of Data Rows : 471

Total analysis time (seconds) = 0.222008

Total elapsed time (seconds) = 0.524 

Total DRAM available = 7780.355 MB.
DRAM currently available = 5155.676 MB.
Maximum ngspice program size =  530.398 MB.
Current ngspice program size =   15.066 MB.

Shared ngspice pages =   10.652 MB.
Text (code) pages =    5.980 MB.
Stack = 0 bytes.
Library pages =   61.238 MB.

