
Note: No compatibility mode selected!


Circuit: ** sch_path: /home/designer/shared/amaru/analog/tb/tb_ldo_gen_2.sch

Doing analysis at TEMP = 27.000000 and TNOM = 27.000000

Using SPARSE 1.3 as Direct Linear Solver
Note: Starting dynamic gmin stepping
Note: Dynamic gmin stepping completed

No. of Data Rows : 1281
ASCII raw file "tb_ldo_g2.raw"
ASCII raw file "/home/designer/shared/amaru/simulations/ngspice/tb_ldo_gen_2.raw"
Doing analysis at TEMP = 27.000000 and TNOM = 27.000000

Using SPARSE 1.3 as Direct Linear Solver
No. of Data Columns : 293  
Note: Starting dynamic gmin stepping
Note: Dynamic gmin stepping completed

No. of Data Rows : 1

Total analysis time (seconds) = 0.104566

Total elapsed time (seconds) = 0.202 

Total DRAM available = 7780.359 MB.
DRAM currently available = 5750.934 MB.
Maximum ngspice program size =  538.953 MB.
Current ngspice program size =   22.594 MB.

Shared ngspice pages =   11.059 MB.
Text (code) pages =    5.980 MB.
Stack = 0 bytes.
Library pages =   69.793 MB.

