
Note: No compatibility mode selected!


Circuit: ** sch_path: /home/designer/shared/amaru/analog/tb/tb_ldo_gen_stb.sch

Doing analysis at TEMP = 27.000000 and TNOM = 27.000000

Using SPARSE 1.3 as Direct Linear Solver
Note: Starting dynamic gmin stepping
Note: Dynamic gmin stepping completed

No. of Data Rows : 801
Doing analysis at TEMP = 27.000000 and TNOM = 27.000000

Using SPARSE 1.3 as Direct Linear Solver
Note: Starting dynamic gmin stepping
Note: Dynamic gmin stepping completed

No. of Data Rows : 801
ASCII raw file "tb_ldo_g1_stb.raw"
Doing analysis at TEMP = 27.000000 and TNOM = 27.000000

Using SPARSE 1.3 as Direct Linear Solver
Note: Starting dynamic gmin stepping
Note: Dynamic gmin stepping completed

No. of Data Rows : 1
ASCII raw file "tb_ldo_gen_stb1.raw"
ASCII raw file "/home/designer/shared/amaru/simulations/ngspice/tb_ldo_gen_stb.raw"
Doing analysis at TEMP = 27.000000 and TNOM = 27.000000

Using SPARSE 1.3 as Direct Linear Solver
Note: Starting dynamic gmin stepping
Note: Dynamic gmin stepping completed
No. of Data Columns : 299  
Warning: unrecognized variable - @r3[i]
Warning: unrecognized variable - @c.x1.c1[i]
Warning: unrecognized variable - @r.x1.r1[i]
Warning: unrecognized variable - @r.x1.r2[i]

No. of Data Rows : 801
OP information in rawfile.

Total analysis time (seconds) = 1.21321

Total elapsed time (seconds) = 1.292 

Total DRAM available = 7780.359 MB.
DRAM currently available = 5748.559 MB.
Maximum ngspice program size =  538.816 MB.
Current ngspice program size =   23.918 MB.

Shared ngspice pages =   11.301 MB.
Text (code) pages =    5.980 MB.
Stack = 0 bytes.
Library pages =   69.656 MB.

