
Note: No compatibility mode selected!


Circuit: ** sch_path: /home/designer/shared/amaru/analog/tb/tb_ldo_01_stb.sch

Doing analysis at TEMP = 27.000000 and TNOM = 27.000000

Using SPARSE 1.3 as Direct Linear Solver

No. of Data Rows : 801
Doing analysis at TEMP = 27.000000 and TNOM = 27.000000

Using SPARSE 1.3 as Direct Linear Solver

No. of Data Rows : 801
ASCII raw file "tb_ldo_02_stb.raw"
Doing analysis at TEMP = 27.000000 and TNOM = 27.000000

Using SPARSE 1.3 as Direct Linear Solver

No. of Data Rows : 1
ASCII raw file "tb_ldo_01_op_stb.raw"
ASCII raw file "/home/designer/shared/amaru/simulations/ngspice/tb_ldo_01_stb.raw"
Doing analysis at TEMP = 27.000000 and TNOM = 27.000000

Using SPARSE 1.3 as Direct Linear Solver
No. of Data Columns : 299  
Warning: unrecognized variable - @c1[i]
Warning: unrecognized variable - @r2[i]
Warning: unrecognized variable - @r1[i]
Warning: unrecognized variable - @r3[i]

No. of Data Rows : 801
OP information in rawfile.

Total analysis time (seconds) = 1.21176

Total elapsed time (seconds) = 1.311 

Total DRAM available = 7780.359 MB.
DRAM currently available = 4997.574 MB.
Maximum ngspice program size =  538.805 MB.
Current ngspice program size =   24.086 MB.

Shared ngspice pages =   11.488 MB.
Text (code) pages =    5.980 MB.
Stack = 0 bytes.
Library pages =   69.645 MB.

