
Note: No compatibility mode selected!


Circuit: ** sch_path: /home/designer/shared/amaru/analog/tb/tb_ldo_01.sch

Doing analysis at TEMP = 27.000000 and TNOM = 27.000000

Using SPARSE 1.3 as Direct Linear Solver

No. of Data Rows : 1281
ASCII raw file "tb_ldo_02.raw"
ASCII raw file "/home/designer/shared/amaru/simulations/ngspice/tb_ldo_01.raw"
Doing analysis at TEMP = 27.000000 and TNOM = 27.000000

Using SPARSE 1.3 as Direct Linear Solver
No. of Data Columns : 293  

No. of Data Rows : 1

Total analysis time (seconds) = 0.0957457

Total elapsed time (seconds) = 0.233 

Total DRAM available = 7780.359 MB.
DRAM currently available = 4999.969 MB.
Maximum ngspice program size =  538.875 MB.
Current ngspice program size =   23.109 MB.

Shared ngspice pages =   11.543 MB.
Text (code) pages =    5.980 MB.
Stack = 0 bytes.
Library pages =   69.715 MB.

