
Note: No compatibility mode selected!


Circuit: ** sch_path: /home/designer/shared/amaru/analog/tb/tb_lskmod_gen.sch

Doing analysis at TEMP = 27.000000 and TNOM = 27.000000

Using SPARSE 1.3 as Direct Linear Solver

No. of Data Rows : 197
Doing analysis at TEMP = 27.000000 and TNOM = 27.000000

Using SPARSE 1.3 as Direct Linear Solver

No. of Data Rows : 197
ASCII raw file "tb_lskm_g1.raw"
ASCII raw file "/home/designer/shared/amaru/simulations/ngspice/tb_lskmod_gen.raw"
Doing analysis at TEMP = 27.000000 and TNOM = 27.000000

Using SPARSE 1.3 as Direct Linear Solver
No. of Data Columns : 126  

No. of Data Rows : 197

Total analysis time (seconds) = 0.0862168

Total elapsed time (seconds) = 0.172 

Total DRAM available = 7780.359 MB.
DRAM currently available = 5532.637 MB.
Maximum ngspice program size =  533.203 MB.
Current ngspice program size =   18.184 MB.

Shared ngspice pages =   11.238 MB.
Text (code) pages =    5.980 MB.
Stack = 0 bytes.
Library pages =   64.043 MB.

