
Note: No compatibility mode selected!


Circuit: ** sch_path: /home/designer/shared/amaru/analog/tb/tb_lskmod_gen_2.sch

Doing analysis at TEMP = 27.000000 and TNOM = 27.000000

Using SPARSE 1.3 as Direct Linear Solver

No. of Data Rows : 197
Doing analysis at TEMP = 27.000000 and TNOM = 27.000000

Using SPARSE 1.3 as Direct Linear Solver

No. of Data Rows : 197
ASCII raw file "tb_lskm_g2.raw"
ASCII raw file "/home/designer/shared/amaru/simulations/ngspice/tb_lskmod_gen_2.raw"
Doing analysis at TEMP = 27.000000 and TNOM = 27.000000

Using SPARSE 1.3 as Direct Linear Solver
No. of Data Columns : 126  

No. of Data Rows : 197

Total analysis time (seconds) = 0.0899163

Total elapsed time (seconds) = 0.192 

Total DRAM available = 7780.359 MB.
DRAM currently available = 5544.473 MB.
Maximum ngspice program size =  533.246 MB.
Current ngspice program size =   18.098 MB.

Shared ngspice pages =   11.121 MB.
Text (code) pages =    5.980 MB.
Stack = 0 bytes.
Library pages =   64.086 MB.

