
Note: No compatibility mode selected!


Circuit: ** sch_path: /home/designer/shared/amaru/analog/tb/tb_lskmod_01.sch

Doing analysis at TEMP = 27.000000 and TNOM = 27.000000

Using SPARSE 1.3 as Direct Linear Solver

No. of Data Rows : 3001
Doing analysis at TEMP = 27.000000 and TNOM = 27.000000

Using SPARSE 1.3 as Direct Linear Solver

No. of Data Rows : 3001
ASCII raw file "tb_lskmod_02.raw"
ASCII raw file "/home/designer/shared/amaru/simulations/ngspice/tb_lskmod_01.raw"
Doing analysis at TEMP = 27.000000 and TNOM = 27.000000

Using SPARSE 1.3 as Direct Linear Solver
No. of Data Columns : 48  

No. of Data Rows : 3001

Total analysis time (seconds) = 0.481175

Total elapsed time (seconds) = 0.633 

Total DRAM available = 7780.359 MB.
DRAM currently available = 5799.211 MB.
Maximum ngspice program size =  534.910 MB.
Current ngspice program size =   19.965 MB.

Shared ngspice pages =   11.184 MB.
Text (code) pages =    5.980 MB.
Stack = 0 bytes.
Library pages =   65.750 MB.

