
Note: No compatibility mode selected!


Circuit: ** sch_path: /home/designer/shared/amaru/analog/tb/tb_opamp_01.sch

Doing analysis at TEMP = 27.000000 and TNOM = 27.000000

Using SPARSE 1.3 as Direct Linear Solver
Note: Starting dynamic gmin stepping
Note: Dynamic gmin stepping completed

No. of Data Rows : 1281
ASCII raw file "tb_opamp_02.raw"
Doing analysis at TEMP = 27.000000 and TNOM = 27.000000

Using SPARSE 1.3 as Direct Linear Solver
Note: Starting dynamic gmin stepping
Note: Dynamic gmin stepping completed

No. of Data Rows : 1
ASCII raw file "tb_opamp_02.raw"
ASCII raw file "/home/designer/shared/amaru/simulations/ngspice/tb_opamp_01.raw"
Doing analysis at TEMP = 27.000000 and TNOM = 27.000000

Using SPARSE 1.3 as Direct Linear Solver
OP information in rawfile.

Total analysis time (seconds) = 0.206325

Total elapsed time (seconds) = 0.340 

Total DRAM available = 7780.355 MB.
DRAM currently available = 4971.148 MB.
Maximum ngspice program size =  546.004 MB.
Current ngspice program size =   28.961 MB.

Shared ngspice pages =   11.051 MB.
Text (code) pages =    5.980 MB.
Stack = 0 bytes.
Library pages =   76.844 MB.

