
Note: No compatibility mode selected!


Circuit: ** sch_path: /home/designer/shared/amaru/analog/tb/tb_pmos_lv_vgs.sch

Reset re-loads circuit ** sch_path: /home/designer/shared/amaru/analog/tb/tb_pmos_lv_vgs.sch

Circuit: ** sch_path: /home/designer/shared/amaru/analog/tb/tb_pmos_lv_vgs.sch

Doing analysis at TEMP = 27.000000 and TNOM = 27.000000

Using SPARSE 1.3 as Direct Linear Solver

No. of Data Rows : 151
ASCII raw file "pmoslv_vgs2.raw"
Reset re-loads circuit ** sch_path: /home/designer/shared/amaru/analog/tb/tb_pmos_lv_vgs.sch

Circuit: ** sch_path: /home/designer/shared/amaru/analog/tb/tb_pmos_lv_vgs.sch

Doing analysis at TEMP = 27.000000 and TNOM = 27.000000

Using SPARSE 1.3 as Direct Linear Solver

No. of Data Rows : 151
ASCII raw file "pmoslv_vgs2.raw"
Reset re-loads circuit ** sch_path: /home/designer/shared/amaru/analog/tb/tb_pmos_lv_vgs.sch

Circuit: ** sch_path: /home/designer/shared/amaru/analog/tb/tb_pmos_lv_vgs.sch

Doing analysis at TEMP = 27.000000 and TNOM = 27.000000

Using SPARSE 1.3 as Direct Linear Solver

No. of Data Rows : 151
ASCII raw file "pmoslv_vgs2.raw"
Reset re-loads circuit ** sch_path: /home/designer/shared/amaru/analog/tb/tb_pmos_lv_vgs.sch

Circuit: ** sch_path: /home/designer/shared/amaru/analog/tb/tb_pmos_lv_vgs.sch

Doing analysis at TEMP = 27.000000 and TNOM = 27.000000

Using SPARSE 1.3 as Direct Linear Solver

No. of Data Rows : 151
ASCII raw file "pmoslv_vgs2.raw"
ASCII raw file "/home/designer/shared/amaru/simulations/ngspice/tb_pmos_lv_vgs.raw"
Doing analysis at TEMP = 27.000000 and TNOM = 27.000000

Using SPARSE 1.3 as Direct Linear Solver
No. of Data Columns : 16  

No. of Data Rows : 151

Total analysis time (seconds) = 0.0782633

Total elapsed time (seconds) = 0.285 

Total DRAM available = 7780.355 MB.
DRAM currently available = 4858.922 MB.
Maximum ngspice program size =  530.441 MB.
Current ngspice program size =   15.184 MB.

Shared ngspice pages =   10.727 MB.
Text (code) pages =    5.980 MB.
Stack = 0 bytes.
Library pages =   61.281 MB.

