
Note: No compatibility mode selected!


Circuit: ** sch_path: /home/designer/shared/amaru/analog/tb/tb_rect_gen_2.sch

Doing analysis at TEMP = 27.000000 and TNOM = 27.000000

Using SPARSE 1.3 as Direct Linear Solver
Warning: singular matrix:  check node l3#branch

Note: Starting dynamic gmin stepping
Warning: singular matrix:  check node l3#branch

Warning: Dynamic gmin stepping failed
Note: Starting true gmin stepping
Warning: singular matrix:  check node l3#branch

Warning: singular matrix:  check node l3#branch

Warning: singular matrix:  check node l3#branch

Warning: singular matrix:  check node l3#branch

Warning: True gmin stepping failed
Note: Starting source stepping
Warning: source stepping failed
Note: Transient op started
Note: Transient op finished successfully

Initial Transient Solution
--------------------------

Node                                   Voltage
----                                   -------
net3                                         0
vss                                          0
x1.net1                                      0
x1.net2                                      0
vo1                                          0
va                                           0
vb                                           0
vout                                         0
net1                                         0
net2                                         0
x2.net1                                      0
x2.net2                                      0
vo2                                          0
x3.net1                                      0
x3.net2                                      0
l3#branch                                    0
l1#branch                                    0
v3#branch                                    0
v2#branch                                    0
v1#branch                                    0


No. of Data Rows : 250063
ASCII raw file "tb_rect_g2.raw"
ASCII raw file "/home/designer/shared/amaru/simulations/ngspice/tb_rect_gen_2.raw"
Doing analysis at TEMP = 27.000000 and TNOM = 27.000000

Using SPARSE 1.3 as Direct Linear Solver
No. of Data Columns : 16  

Initial Transient Solution
--------------------------

Node                                   Voltage
----                                   -------
net3                                         0
vss                                          0
x1.net1                                      0
x1.net2                                      0
vo1                                          0
va                                           0
vb                                           0
vout                                         0
net1                                         0
net2                                         0
x2.net1                                      0
x2.net2                                      0
vo2                                          0
x3.net1                                      0
x3.net2                                      0
l3#branch                                    0
l1#branch                                    0
v3#branch                                    0
v2#branch                                    0
v1#branch                                    0


No. of Data Rows : 250063

Total analysis time (seconds) = 208.239

Total elapsed time (seconds) = 218.047 

Total DRAM available = 7780.359 MB.
DRAM currently available = 5706.328 MB.
Maximum ngspice program size =  578.188 MB.
Current ngspice program size =   63.555 MB.

Shared ngspice pages =   11.328 MB.
Text (code) pages =    5.980 MB.
Stack = 0 bytes.
Library pages =  109.027 MB.

