
Note: No compatibility mode selected!


Circuit: ** sch_path: /home/designer/shared/amaru/analog/tb/tb_rect_01.sch

Doing analysis at TEMP = 27.000000 and TNOM = 27.000000

Using SPARSE 1.3 as Direct Linear Solver
Warning: singular matrix:  check node va

Note: Starting dynamic gmin stepping
Warning: singular matrix:  check node va

Warning: Dynamic gmin stepping failed
Note: Starting true gmin stepping
Warning: singular matrix:  check node va

Warning: singular matrix:  check node va

Warning: singular matrix:  check node va

Warning: singular matrix:  check node va

Warning: True gmin stepping failed
Note: Starting source stepping
Warning: source stepping failed
Note: Transient op started
Note: Transient op finished successfully

Initial Transient Solution
--------------------------

Node                                   Voltage
----                                   -------
va                                           0
vb                                           0
vo1                                          0
vss                                          0
x1.net1                                      0
x1.net2                                      0
vo2                                          0
x2.net1                                      0
x2.net2                                      0
vo3                                          0
x3.net1                                      0
x3.net2                                      0
x4.net1                                      0
x4.net2                                      0
vout                                         0
net1                                         0
v3#branch                                    0
v2#branch                                    0
v1#branch                                    0


No. of Data Rows : 502657
binary raw file "tb_rect_01.raw"
binary raw file "/home/designer/shared/amaru/simulations/ngspice/tb_rect_01.raw"
Doing analysis at TEMP = 27.000000 and TNOM = 27.000000

Using SPARSE 1.3 as Direct Linear Solver
No. of Data Columns : 17  

Initial Transient Solution
--------------------------

Node                                   Voltage
----                                   -------
va                                           0
vb                                           0
vo1                                          0
vss                                          0
x1.net1                                      0
x1.net2                                      0
vo2                                          0
x2.net1                                      0
x2.net2                                      0
vo3                                          0
x3.net1                                      0
x3.net2                                      0
x4.net1                                      0
x4.net2                                      0
vout                                         0
net1                                         0
v3#branch                                    0
v2#branch                                    0
v1#branch                                    0


No. of Data Rows : 502657

Total analysis time (seconds) = 788.419

Total elapsed time (seconds) = 813.486 

Total DRAM available = 7780.355 MB.
DRAM currently available = 5634.367 MB.
Maximum ngspice program size =  630.172 MB.
Current ngspice program size =  115.648 MB.

Shared ngspice pages =   11.434 MB.
Text (code) pages =    5.980 MB.
Stack = 0 bytes.
Library pages =  161.012 MB.

